data_cif_Tungsten Cobalt Carbide
_audit_creation_date              'October 16, 2017, 4:17 PM'
_audit_creation_method            'MDI-Jade (2010)'

_chemical_name_common
;
Tungsten Cobalt Carbide
;
_chemical_formula_sum             W3Co3C

_publ_section_references
;
Calculated from LPF using POWD-12++, Lugscheider, E., Reimann, H.,
Pankert, R., Z. Metallkd., v73 p321-324 (1982)
;
_publ_section_comment
;
ANX: NO3P3. LPF Collection Code: 1707493. Melting Point: 2033(10) K.
Sample Preparation: CRUCIBLE: zirconia crucible. ATMOSPHERE: purified
argon. Minor Warning: No R factors reported/abstracted. Unit Cell Data
Source: Powder Diffraction.
;

_symmetry_cell_setting            Cubic
_symmetry_space_group_name_H-M    'F d -3 m:1'
_symmetry_Int_Tables_number       227

_cell_length_a                    11.116
_cell_length_b                    11.116
_cell_length_c                    11.116
_cell_angle_alpha                 90.0
_cell_angle_beta                  90.0
_cell_angle_gamma                 90.0
_cell_volume                      1373.55
_cell_formula_units_Z             16.0

loop_
 _atom_site_label
 _atom_site_type_symbol
 _atom_site_symmetry_multiplicity
 _atom_site_occupancy
 _atom_site_fract_x
 _atom_site_fract_y
 _atom_site_fract_z
 _atom_site_B_iso_or_equiv
 _atom_site_thermal_displace_type
 W    W    48  1.0   0.4272   0.125    0.125    0.0      Biso
 Co   Co   32  1.0   0.2047   0.2047   0.2047   0.0      Biso
 C    C    16  1.0   0.5      0.5      0.5      0.0      Biso
 Co   Co   16  1.0   0.0      0.0      0.0      0.0      Biso
