data_cif_Tungsten Aluminum Carbide
_audit_creation_date              'October 16, 2017, 12:52 PM'
_audit_creation_method            'MDI-Jade (2010)'

_chemical_name_common
;
Tungsten Aluminum Carbide
;
_chemical_formula_sum             W0.5Al0.5C

_publ_section_references
;
Calculated from LPF using POWD-12++, Yan J., Ma X., Zhao W., Tang H., Zhu
C., Cai S., Mater. Res. Bull., v40 p701-707 (2005)
;
_publ_section_comment
;
ANX: NO. LPF Collection Code: 1815196. Sample Preparation: Compound
Preparation: metals ball-milled for 20 h under argon, ball-milled with C
for 50 h, annealed at 1873 K for 5 h in vacuum.  Calculated Pattern
Original Remarks: LPF Editor Comment: editor deduced probable site
occupation from nominal composition. Minor Warning: No R factors
reported/abstracted. Minor warning from the LPF Editor exist. Unit Cell
Data Source: Powder Diffraction.
;

_symmetry_cell_setting            Hexagonal
_symmetry_space_group_name_H-M    P -6 m 2
_symmetry_Int_Tables_number       187

_cell_length_a                    2.908
_cell_length_b                    2.908
_cell_length_c                    2.836
_cell_angle_alpha                 90.0
_cell_angle_beta                  90.0
_cell_angle_gamma                 120.0
_cell_volume                      20.77
_cell_formula_units_Z             1.0

loop_
 _atom_site_label
 _atom_site_type_symbol
 _atom_site_symmetry_multiplicity
 _atom_site_occupancy
 _atom_site_fract_x
 _atom_site_fract_y
 _atom_site_fract_z
 _atom_site_B_iso_or_equiv
 _atom_site_thermal_displace_type
 Al   Al   1   0.5   0.0      0.0      0.0      0.5      Biso
 W    W    1   0.5   0.0      0.0      0.0      0.5      Biso
 C    C    1   1.0   0.33333  0.66666  0.5      0.5      Biso
