data_cif_Tungsten Vanadium
_audit_creation_date              'October 16, 2017, 3:04 PM'
_audit_creation_method            'MDI-Jade (2010)'

_chemical_name_common
;
Tungsten Vanadium
;
_chemical_formula_sum             V0.5W0.5

_publ_section_references
;
Calculated from LPF using POWD-12++, Gladyshevskii E.I., Fedorov T.F.,
Skolozdra R.V., Gorshkova L.V., Soviet Powder Metall. and Met. Ceramics,
v6 p406 (1967)
;
_publ_section_comment
;
ANX: N. LPF Collection Code: 457527. Sample Preparation: Compound
Preparation: powder metallurgical technique. Sample annealed at 1473-2073
K for 26-96 h and at 1273 K for 200-400 h, water-quenched. Minor Warning:
No e.s.d reported/abstracted on the cell dimension. No R factor
reported/abstracted. LPF Editor Comment: editor deduced probable site
occupation from nominal composition. Unit Cell Data Source: Powder
Diffraction.
;

_symmetry_cell_setting            Cubic
_symmetry_space_group_name_H-M    I m -3 m
_symmetry_Int_Tables_number       229

_cell_length_a                    3.08285
_cell_length_b                    3.08285
_cell_length_c                    3.08285
_cell_angle_alpha                 90.0
_cell_angle_beta                  90.0
_cell_angle_gamma                 90.0
_cell_volume                      29.59
_cell_formula_units_Z             2.0

loop_
 _atom_site_label
 _atom_site_type_symbol
 _atom_site_symmetry_multiplicity
 _atom_site_occupancy
 _atom_site_fract_x
 _atom_site_fract_y
 _atom_site_fract_z
 _atom_site_B_iso_or_equiv
 _atom_site_thermal_displace_type
 W    W    2   0.5   0.0      0.0      0.0      0.0      Biso
 V    V    2   0.5   0.0      0.0      0.0      0.0      Biso
