data_cif_Lime
_audit_creation_date              'Tuesday, February 23, 2016, 4:40 PM'
_audit_creation_method            'MDI-Jade (2010)'

_chemical_name_common
;
Lime
;
_chemical_formula_sum             CaO

_publ_section_references
;
Z f Phys Chem 128 (1927) 135, Oftedal I. Lattice constant from Powder
Diffraction 1, 266 (1986) McMurdie et. al.
;
_publ_section_comment
;
See also ICDD 37-1487. [Lime.csf]
;

_symmetry_cell_setting            Cubic
_symmetry_space_group_name_H-M    Fm-3m
_symmetry_Int_Tables_number       225

_cell_length_a                    4.81059
_cell_length_b                    4.81059
_cell_length_c                    4.81059
_cell_angle_alpha                 90.0
_cell_angle_beta                  90.0
_cell_angle_gamma                 90.0
_cell_volume                      111.33
_cell_formula_units_Z             4.0

loop_
 _atom_site_label
 _atom_site_type_symbol
 _atom_site_symmetry_multiplicity
 _atom_site_occupancy
 _atom_site_fract_x
 _atom_site_fract_y
 _atom_site_fract_z
 _atom_site_B_iso_or_equiv
 _atom_site_thermal_displace_type
 Ca1  Ca+2 4   1.0   0.0      0.0      0.0      0.5      Biso
 O1   O-2  4   1.0   0.5      0.5      0.5      0.5      Biso
