data_cif_Arcanite
_audit_creation_date              'Tuesday, February 23, 2016, 4:38 PM'
_audit_creation_method            'MDI-Jade (2010)'

_chemical_name_common
;
Arcanite
;
_chemical_formula_sum             K2SO4

_publ_section_references
;
"Redetermination of the structures of potassium sulphate and potassium
chromate: the effekt of electrostatic crystal forces upon observed bond
lengths", McGinnety, J.A., Acta Crystallographica B (24,1968-38,1982), v28
(1972) 2845-2852
;
_publ_section_comment
;
See also ICDD 44-1414. [Arcanite.csf]
;

_symmetry_cell_setting            Orthorhombic
_symmetry_space_group_name_H-M    Pnam
_symmetry_Int_Tables_number       62

_cell_length_a                    7.476
_cell_length_b                    10.071
_cell_length_c                    5.763
_cell_angle_alpha                 90.0
_cell_angle_beta                  90.0
_cell_angle_gamma                 90.0
_cell_volume                      433.9
_cell_formula_units_Z             4.0

loop_
 _atom_site_label
 _atom_site_type_symbol
 _atom_site_symmetry_multiplicity
 _atom_site_occupancy
 _atom_site_fract_x
 _atom_site_fract_y
 _atom_site_fract_z
 _atom_site_B_iso_or_equiv
 _atom_site_thermal_displace_type
 S1   S    4   1.0   0.233    0.4197   0.25     1.17634  Biso
 K1   K+1  4   1.0   0.6738   0.4106   0.25     1.81309  Biso
 K2   K+1  4   1.0   -0.011   0.7041   0.25     1.63464  Biso
 O1   O-2  4   1.0   0.0379   0.4166   0.25     2.26423  Biso
 O2   O-2  4   1.0   0.2963   0.5582   0.25     1.96353  Biso
 O3   O-2  8   1.0   0.3009   0.3522   0.0412   2.2339   Biso
