data_cif_Belite - Larnite - C2S
_audit_creation_date              'Tuesday, February 23, 2016, 4:38 PM'
_audit_creation_method            'MDI-Jade (2010)'

_chemical_name_common
;
Belite - Larnite - C2S
;
_chemical_formula_sum             Ca2SiO4

_publ_section_references
;
Acta Cryst B 33 (1977) 1696, Jost, K.H., Ziemer, B., Seydel, R.
;
_publ_section_comment
;
See also PDF 33-0302. [Larnite - Belite - C2S.csf]
;

_symmetry_cell_setting            Monoclinic
_symmetry_space_group_name_H-M    P21/n
_symmetry_Int_Tables_number       14

_cell_length_a                    5.502
_cell_length_b                    6.745
_cell_length_c                    9.297
_cell_angle_alpha                 90.0
_cell_angle_beta                  94.59
_cell_angle_gamma                 90.0
_cell_volume                      343.91
_cell_formula_units_Z             4.0

loop_
 _atom_site_label
 _atom_site_type_symbol
 _atom_site_symmetry_multiplicity
 _atom_site_occupancy
 _atom_site_fract_x
 _atom_site_fract_y
 _atom_site_fract_z
 _atom_site_B_iso_or_equiv
 _atom_site_thermal_displace_type
 Ca1  Ca+2 4   1.0   0.274    0.343    0.569    0.4      Biso
 Ca2  Ca+2 4   1.0   0.28     0.998    0.298    0.3      Biso
 Si1  Si+4 4   1.0   0.232    0.781    0.582    0.2      Biso
 O1   O-2  4   1.0   0.286    0.014    0.56     0.9      Biso
 O2   O-2  4   1.0   0.02     0.749    0.692    0.7      Biso
 O3   O-2  4   1.0   0.486    0.668    0.638    0.6      Biso
 O4   O-2  4   1.0   0.156    0.671    0.426    0.6      Biso
