data_cif_Periclase
_audit_creation_date              'Tuesday, February 23, 2016, 4:40 PM'
_audit_creation_method            'MDI-Jade (2010)'

_chemical_name_common
;
Periclase
;
_chemical_formula_sum             MgO

_publ_section_references
;
"X-ray diffraction examination of some oxide and sulfide systems",
Kondrashev, Yu.D.; Omel'chenko, Y.A., Zhurnal Neorganicheskoi Khimii, v9
(1964) 512-516, Transactions and Journal of the British Ceramic Society,
v83 (1984) 5-9, Journal of Materials Science, v12 (1977) 838-839
;
_publ_section_comment
;
See also ICDD 45-0946. [Periclase.csf]
;

_symmetry_cell_setting            Cubic
_symmetry_space_group_name_H-M    Fm-3m
_symmetry_Int_Tables_number       225

_cell_length_a                    4.2109
_cell_length_b                    4.2109
_cell_length_c                    4.2109
_cell_angle_alpha                 90.0
_cell_angle_beta                  90.0
_cell_angle_gamma                 90.0
_cell_volume                      74.67
_cell_formula_units_Z             4.0

loop_
 _atom_site_label
 _atom_site_type_symbol
 _atom_site_symmetry_multiplicity
 _atom_site_occupancy
 _atom_site_fract_x
 _atom_site_fract_y
 _atom_site_fract_z
 _atom_site_B_iso_or_equiv
 _atom_site_thermal_displace_type
 Mg1  Mg+2 4   1.0   0.0      0.0      0.0      0.5      Biso
 O1   O-2  4   1.0   0.5      0.5      0.5      0.5      Biso
