data_cif_Alite Monoclinic C3S
_audit_creation_date              'Tuesday, February 23, 2016, 4:38 PM'
_audit_creation_method            'MDI-Jade (2010)'

_chemical_name_common
;
Alite Monoclinic C3S
;
_chemical_formula_sum             Ca3SiO5

_publ_section_references
;
after A.G. De la Torre et al. CCR 32 (2002) 1347-1356
;
_publ_section_comment
;
[Alite Monoclinic C3S.csf]
;

_symmetry_cell_setting            Monoclinic
_symmetry_space_group_name_H-M    Cm
_symmetry_Int_Tables_number       8

_cell_length_a                    33.1039
_cell_length_b                    7.0377
_cell_length_c                    18.526
_cell_angle_alpha                 90.0
_cell_angle_beta                  94.141
_cell_angle_gamma                 90.0
_cell_volume                      4304.83
_cell_formula_units_Z             36.0

loop_
 _atom_site_label
 _atom_site_type_symbol
 _atom_site_symmetry_multiplicity
 _atom_site_occupancy
 _atom_site_fract_x
 _atom_site_fract_y
 _atom_site_fract_z
 _atom_site_B_iso_or_equiv
 _atom_site_thermal_displace_type
 Ca1  Ca+2 2   1.0   -0.0024  0.0      0.0104   0.98     Biso
 Ca2  Ca+2 2   1.0   0.6595   0.0      0.1605   0.98     Biso
 Ca3  Ca+2 2   1.0   0.3113   0.0      0.3342   0.98     Biso
 Ca4  Ca+2 2   1.0   -0.0199  0.0      0.4939   0.98     Biso
 Ca5  Ca+2 2   1.0   0.6531   0.0      0.6651   0.98     Biso
 Ca6  Ca+2 2   1.0   0.3188   0.0      0.8407   0.98     Biso
 Ca7  Ca+2 2   1.0   0.5881   0.0      -0.0745  0.98     Biso
 Ca8  Ca+2 2   1.0   0.2592   0.0      0.1012   0.98     Biso
 Ca9  Ca+2 2   1.0   -0.0815  0.0      0.2619   0.98     Biso
 Ca10 Ca+2 2   1.0   0.5848   0.0      0.4262   0.98     Biso
 Ca11 Ca+2 2   1.0   0.2494   0.0      0.6061   0.98     Biso
 Ca12 Ca+2 2   1.0   -0.0817  0.0      0.7649   0.98     Biso
 Ca13 Ca+2 2   1.0   0.7322   0.0      -0.0925  0.98     Biso
 Ca14 Ca+2 2   1.0   0.4019   0.0      0.0778   0.98     Biso
 Ca15 Ca+2 2   1.0   0.0646   0.0      0.2418   0.98     Biso
 Ca16 Ca+2 2   1.0   0.7236   0.0      0.4022   0.98     Biso
 Ca17 Ca+2 2   1.0   0.3895   0.0      0.5731   0.98     Biso
 Ca18 Ca+2 2   1.0   0.0617   0.0      0.7363   0.98     Biso
 Ca19 Ca+2 4   0.5   -0.0835  0.2749   -0.0847  0.82     Biso
 Ca20 Ca+2 4   0.5   -0.0832  0.2745   -0.0846  0.82     Biso
 Ca21 Ca+2 4   0.5   0.5804   0.2773   0.0841   0.82     Biso
 Ca22 Ca+2 4   0.5   0.5849   0.2806   0.0917   0.82     Biso
 Ca23 Ca+2 4   0.5   0.2397   0.2499   0.258    0.82     Biso
 Ca24 Ca+2 4   0.5   0.2412   0.2565   0.2577   0.82     Biso
 Ca25 Ca+2 4   0.5   -0.0969  0.265    0.4132   0.82     Biso
 Ca26 Ca+2 4   0.5   -0.0938  0.2926   0.4099   0.82     Biso
 Ca27 Ca+2 4   0.5   0.5759   0.2504   0.5964   0.82     Biso
 Ca28 Ca+2 4   0.5   0.5651   0.2225   0.5716   0.82     Biso
 Ca29 Ca+2 4   0.5   0.2436   0.2496   0.7523   0.82     Biso
 Ca30 Ca+2 4   0.5   0.2444   0.2406   0.762    0.82     Biso
 Ca31 Ca+2 4   0.5   -0.0023  0.2176   -0.153   0.82     Biso
 Ca32 Ca+2 4   0.5   -0.0003  0.2317   -0.1576  0.82     Biso
 Ca33 Ca+2 4   0.5   0.6675   0.2316   0.0153   0.82     Biso
 Ca34 Ca+2 4   0.5   0.6663   0.241    0.0195   0.82     Biso
 Ca35 Ca+2 4   0.5   0.3345   0.2348   0.1718   0.82     Biso
 Ca36 Ca+2 4   0.5   0.3388   0.2216   0.1825   0.82     Biso
 Ca37 Ca+2 4   0.5   -0.0049  0.2346   0.3463   0.82     Biso
 Ca38 Ca+2 4   0.5   -0.0051  0.2382   0.3444   0.82     Biso
 Ca39 Ca+2 4   0.5   0.6608   0.2289   0.5199   0.82     Biso
 Ca40 Ca+2 4   0.5   0.657    0.2178   0.5225   0.82     Biso
 Ca41 Ca+2 4   0.5   0.3312   0.2397   0.6806   0.82     Biso
 Ca42 Ca+2 4   0.5   0.331    0.2356   0.6771   0.82     Biso
 Ca43 Ca+2 4   0.5   0.826    0.2698   -0.0115  0.82     Biso
 Ca44 Ca+2 4   0.5   0.8268   0.264    -0.0093  0.82     Biso
 Ca45 Ca+2 4   0.5   0.4904   0.2604   0.1593   0.82     Biso
 Ca46 Ca+2 4   0.5   0.4906   0.2567   0.1602   0.82     Biso
 Ca47 Ca+2 4   0.5   0.1502   0.2541   0.3293   0.82     Biso
 Ca48 Ca+2 4   0.5   0.1509   0.254    0.3288   0.82     Biso
 Ca49 Ca+2 4   0.5   0.8127   0.26     0.4928   0.82     Biso
 Ca50 Ca+2 4   0.5   0.8139   0.2611   0.4998   0.82     Biso
 Ca51 Ca+2 4   0.5   0.4826   0.2768   0.6571   0.82     Biso
 Ca52 Ca+2 4   0.5   0.4821   0.2661   0.6563   0.82     Biso
 Ca53 Ca+2 4   0.5   0.1559   0.2721   0.8212   0.82     Biso
 Ca54 Ca+2 4   0.5   0.1555   0.2713   0.8206   0.82     Biso
 Si55 Si+4 2   1.0   0.0816   0.0      0.4254   0.29     Biso
 Si56 Si+4 2   1.0   0.2329   0.0      -0.0728  0.29     Biso
 Si57 Si+4 2   1.0   0.4211   0.0      0.7473   0.29     Biso
 Si58 Si+4 2   1.0   0.5603   0.0      0.7582   0.29     Biso
 Si59 Si+4 2   1.0   -0.0976  0.0      0.0775   0.29     Biso
 Si60 Si+4 2   1.0   -0.1054  0.0      0.5743   0.29     Biso
 Si61 Si+4 2   1.0   0.0918   0.0      -0.0895  0.29     Biso
 Si62 Si+4 2   1.0   0.1615   0.0      0.1676   0.29     Biso
 Si63 Si+4 2   1.0   0.1588   0.0      0.6621   0.29     Biso
 Si64 Si+4 2   1.0   0.2244   0.0      0.4237   0.29     Biso
 Si65 Si+4 2   1.0   0.4176   0.0      0.2554   0.29     Biso
 Si66 Si+4 2   1.0   0.502    0.0      0.0003   0.29     Biso
 Si67 Si+4 2   1.0   0.4845   0.0      0.4913   0.29     Biso
 Si68 Si+4 2   1.0   0.5669   0.0      0.2431   0.29     Biso
 Si69 Si+4 2   1.0   0.7533   0.0      0.0911   0.29     Biso
 Si70 Si+4 2   1.0   0.7506   0.0      0.5841   0.29     Biso
 Si71 Si+4 2   1.0   -0.175   0.0      0.3336   0.29     Biso
 Si72 Si+4 2   1.0   -0.1757  0.0      -0.1576  0.29     Biso
 O73  O-1  2   1.0   0.9921   0.0      0.2524   2.456    Biso
 O74  O-1  2   1.0   0.0343   0.0      0.1221   2.456    Biso
 O75  O-1  2   1.0   0.0309   0.0      0.6022   2.456    Biso
 O76  O-1  2   1.0   -0.0101  0.0      0.7493   2.456    Biso
 O77  O-1  2   1.0   0.3664   0.0      -0.0667  2.456    Biso
 O78  O-1  2   1.0   0.3313   0.0      0.0836   2.456    Biso
 O79  O-1  2   1.0   0.283    0.0      0.2215   2.456    Biso
 O80  O-1  2   1.0   0.3525   0.0      0.4435   2.456    Biso
 O81  O-1  2   1.0   0.3245   0.0      0.5929   2.456    Biso
 O82  O-1  2   1.0   0.2857   0.0      0.7233   2.456    Biso
 O11  O-1  2   1.0   0.6617   0.0      -0.0842  2.456    Biso
 O84  O-1  2   1.0   0.617    0.0      0.0405   2.456    Biso
 O85  O-1  2   1.0   0.6976   0.0      0.2982   2.456    Biso
 O86  O-1  2   1.0   0.6538   0.0      0.4255   2.456    Biso
 O87  O-1  2   1.0   0.6147   0.0      0.5497   2.456    Biso
 O88  O-1  2   1.0   0.7014   0.0      0.7697   2.456    Biso
 O89  O-1  2   1.0   0.9398   0.0      0.3866   2.456    Biso
 O90  O-1  2   1.0   0.9564   0.0      0.903    2.456    Biso
 O91  O-1  2   1.0   0.1052   0.0      0.3522   1.247    Biso
 O92  O-1  2   1.0   0.0327   0.0      0.4097   1.247    Biso
 O93  O-1  4   1.0   0.0937   0.1866   0.4743   1.247    Biso
 O94  O-1  2   1.0   0.2096   0.0      0.0014   1.247    Biso
 O95  O-1  2   1.0   0.2806   0.0      -0.0529  1.247    Biso
 O96  O-1  4   1.0   0.2188   0.1794   -0.1237  1.247    Biso
 O97  O-1  2   1.0   0.4415   0.0      0.6706   1.247    Biso
 O98  O-1  2   1.0   0.3718   0.0      0.7387   1.247    Biso
 O99  O-1  4   1.0   0.4338   0.1903   0.7927   1.247    Biso
 O100 O-1  2   1.0   0.5376   0.0      0.832    1.247    Biso
 O101 O-1  2   1.0   0.6091   0.0      0.77     1.247    Biso
 O102 O-1  4   1.0   0.546    0.1822   0.7089   1.247    Biso
 O103 O-1  2   1.0   -0.1243  0.0      0.1492   1.247    Biso
 O104 O-1  2   1.0   -0.0504  0.0      0.1067   1.247    Biso
 O105 O-1  4   1.0   -0.1067  0.1899   0.0297   1.247    Biso
 O106 O-1  2   1.0   -0.1283  0.0      0.6495   1.247    Biso
 O107 O-1  2   1.0   -0.0569  0.0      0.5918   1.247    Biso
 O108 O-1  4   1.0   -0.1168  0.1886   0.527    1.247    Biso
 O109 O-1  2   1.0   0.113    0.0      -0.16667 1.247    Biso
 O110 O-1  2   1.0   0.0435   0.0      -0.1025  1.247    Biso
 O111 O-1  4   1.0   0.1071   0.1873   -0.0459  1.247    Biso
 O112 O-1  4   0.5   0.1382   0.0299   0.088    1.247    Biso
 O113 O-1  4   0.5   0.1298   -0.1248  0.2129   1.247    Biso
 O114 O-1  4   0.5   0.2003   -0.1357  0.1537   1.247    Biso
 O115 O-1  4   0.5   0.1732   0.1913   0.2111   1.247    Biso
 O116 O-1  2   0.41  0.1803   0.0      0.5844   1.247    Biso
 O117 O-1  2   0.41  0.1104   0.0      0.6479   1.247    Biso
 O118 O-1  4   0.41  0.1762   0.1852   0.7047   1.247    Biso
 O119 O-1  2   0.59  0.1953   0.0      0.7258   1.247    Biso
 O120 O-1  2   0.59  0.1776   0.0      0.5831   1.247    Biso
 O121 O-1  4   0.59  0.1303   0.1876   0.6686   1.247    Biso
 O122 O-1  2   0.41  0.2397   0.0      0.342    1.247    Biso
 O123 O-1  2   0.41  0.2641   0.0      0.4814   1.247    Biso
 O124 O-1  4   0.41  0.1998   0.1918   0.4298   1.247    Biso
 O125 O-1  2   0.59  0.1873   0.0      0.4798   1.247    Biso
 O126 O-1  2   0.59  0.2644   0.0      0.4777   1.247    Biso
 O127 O-1  4   0.59  0.2186   0.1926   0.3763   1.247    Biso
 O131 O-1  2   1.0   0.4467   0.0      0.3284   1.247    Biso
 O132 O-1  2   1.0   0.3699   0.0      0.2682   1.247    Biso
 O133 O-1  4   1.0   0.4281   0.1787   0.2041   1.247    Biso
 O134 O-1  2   1.0   0.4706   0.0      -0.0696  1.247    Biso
 O135 O-1  2   1.0   0.4794   0.0      0.0762   1.247    Biso
 O137 O-1  4   1.0   0.5329   0.1844   0.0031   1.247    Biso
 O138 O-1  2   1.0   0.5126   0.0      0.4235   1.247    Biso
 O139 O-1  2   1.0   0.4357   0.0      0.4712   1.247    Biso
 O140 O-1  4   1.0   0.4938   0.1927   0.5364   1.247    Biso
 O145 O-1  2   0.409 0.5623   0.0      0.1528   1.247    Biso
 O146 O-1  2   0.409 0.6162   0.0      0.2603   1.247    Biso
 O147 O-1  4   0.409 0.5482   0.1931   0.2718   1.247    Biso
 O148 O-1  2   0.591 0.603    0.0      0.3054   1.247    Biso
 O149 O-1  2   0.591 0.586    0.0      0.1658   1.247    Biso
 O150 O-1  4   0.591 0.5393   0.1866   0.2549   1.247    Biso
 O151 O-1  2   1.0   0.7352   0.0      0.1707   1.247    Biso
 O152 O-1  2   1.0   0.7138   0.0      0.032    1.247    Biso
 O153 O-1  4   1.0   0.7815   0.1871   0.0832   1.247    Biso
 O154 O-1  2   1.0   0.7689   0.0      0.5064   1.247    Biso
 O155 O-1  2   1.0   0.702    0.0      0.5788   1.247    Biso
 O156 O-1  4   1.0   0.7646   0.1836   0.633    1.247    Biso
 O157 O-1  4   0.5   -0.1969  0.092    0.262    1.247    Biso
 O158 O-1  4   0.5   -0.2066  -0.1562  0.3628   1.247    Biso
 O159 O-1  4   0.5   -0.1365  -0.1333  0.3145   1.247    Biso
 O160 O-1  4   0.5   -0.1555  0.1228   0.3998   1.247    Biso
 O161 O-1  2   1.0   -0.1962  0.0      -0.0796  1.247    Biso
 O162 O-1  2   1.0   -0.1274  0.0      -0.141   1.247    Biso
 O163 O-1  4   1.0   -0.1904  0.1912   -0.2011  1.247    Biso
