data_cif_Ferrite - Brownmillerite - C4AF
_audit_creation_date              'Tuesday, February 23, 2016, 4:39 PM'
_audit_creation_method            'MDI-Jade (2010)'

_chemical_name_common
;
Ferrite - Brownmillerite - C4AF
;
_chemical_formula_sum             Ca2FeAlO5

_publ_section_references
;
Acta Cryst B 27 (1971) 2311, Colville, A.A., Geller, S.
;
_publ_section_comment
;
See also PDF 30-0226. [Brownmillerite - Ferrite - C4AF.csf]
;

_symmetry_cell_setting            Orthorhombic
_symmetry_space_group_name_H-M    Ibm2
_symmetry_Int_Tables_number       46

_cell_length_a                    5.584
_cell_length_b                    14.6
_cell_length_c                    5.374
_cell_angle_alpha                 90.0
_cell_angle_beta                  90.0
_cell_angle_gamma                 90.0
_cell_volume                      438.12
_cell_formula_units_Z             4.0

loop_
 _atom_site_label
 _atom_site_type_symbol
 _atom_site_symmetry_multiplicity
 _atom_site_occupancy
 _atom_site_fract_x
 _atom_site_fract_y
 _atom_site_fract_z
 _atom_site_B_iso_or_equiv
 _atom_site_thermal_displace_type
 Ca   Ca+2 8   1.0   0.027    0.109    0.492    0.7      Biso
 Fe1  Fe+3 4   0.8   0.0      0.0      0.0      0.5      Biso
 Fe2  Fe+3 4   0.2   0.928    0.25     0.953    0.3      Biso
 Al1  Al+3 4   0.2   0.0      0.0      0.0      0.5      Biso
 Al2  Al+3 4   0.8   0.928    0.25     0.953    0.3      Biso
 O1   O-2  8   1.0   0.252    0.986    0.249    0.7      Biso
 O2   O-2  8   1.0   0.068    0.149    0.025    0.9      Biso
 O3   O-2  4   1.0   0.861    0.25     0.619    0.7      Biso
